parallel/no_load/60pc/TNB_DUMA_VLN.Txt

SYMMETRICAL COMPONENT VOLTAGES BY BUS (for 3-phase buses)

Bus               Mag:   V1 (kV)    p.u.     V2 (kV)   %V2/V1    V0 (kV)    %V0/V1

ppu_duma_33kv        19.06          1  9.461E-009  4.964E-008 1.239E-009 6.503E-009
ppu_duma_11kv        6.261     0.9859  3.435E-009  5.487E-008 9.999E-010 1.597E-008
rpplngi2             6.359      1.001  3.48E-009  5.473E-008 1.029E-009 1.618E-008
pdtjlnmasjid         6.432      1.013  3.514E-009  5.464E-008 1.051E-009 1.633E-008
bella                6.481       1.02  3.537E-009  5.457E-008 1.065E-009 1.644E-008
pstpdgn              6.505      1.024  3.548E-009  5.454E-008 1.072E-009 1.649E-008
pamdra               6.271     0.9874  3.44E-009  5.485E-008 1.003E-009  1.6E-008
duma4                6.305     0.9928  3.456E-009  5.481E-008 1.161E-009 1.842E-008
plsdra                6.38      1.005  3.49E-009  5.47E-008 1.46E-009 2.288E-008
ssu_uptwres_ir1      6.393      1.007  3.496E-009  5.469E-008 1.464E-009 2.291E-008
atria_1              6.394      1.007  3.496E-009  5.469E-008 1.039E-009 1.625E-008
hawker               6.416       1.01  3.508E-009  5.467E-008 1.044E-009 1.627E-008
prmte                6.351          1  3.478E-009  5.477E-008 1.375E-009 2.166E-008
prmta                6.366      1.002  3.485E-009  5.475E-008 1.381E-009 2.169E-008
pmontb               6.378      1.004  3.49E-009  5.473E-008 1.427E-009 2.237E-008
duma7                6.297     0.9915  3.526E-009  5.599E-008 1.018E-009 1.617E-008
haus                 6.369      1.003  3.698E-009  5.805E-008 7.537E-009 1.183E-007
duma6                6.565      1.034  4.272E-009  6.507E-008 3.347E-008 5.097E-007
duma13               6.743      1.062  4.869E-009  7.222E-008 6.133E-008 9.096E-007
ssu_duma5_im2        6.766      1.065  4.969E-009  7.344E-008 6.169E-008 9.117E-007
plngi_b              6.311     0.9938  3.458E-009  5.48E-008 1.014E-009 1.607E-008
plngi_d              6.337     0.9978  3.47E-009  5.476E-008 1.021E-009 1.612E-008
pdtlitrak            6.494      1.023  3.546E-009  5.461E-008 1.091E-009 1.68E-008
duma12               6.589      1.038  3.591E-009  5.451E-008 1.13E-009 1.714E-008
tmngh4               6.678      1.052  3.633E-009  5.44E-008 1.54E-009 2.306E-008
ssu_tmegah3_ir1      6.714      1.057  3.649E-009  5.435E-008 1.71E-009 2.547E-008
tmngh2                6.73       1.06  3.657E-009  5.434E-008 1.785E-009 2.652E-008
sprk9                6.479       1.02  3.537E-009  5.459E-008 1.068E-009 1.649E-008
bomba                6.491      1.022  3.542E-009  5.457E-008 1.11E-009 1.71E-008
sprk8                6.522      1.027  3.556E-009  5.453E-008 1.217E-009 1.866E-008
ssu_uptwres_im2      6.299     0.9918  3.453E-009  5.482E-008 1.137E-009 1.805E-008
maybank              6.349     0.9997  3.476E-009  5.475E-008 1.153E-009 1.815E-008
duma8                6.358      1.001  3.48E-009  5.474E-008 1.185E-009 1.863E-008
ssu_dsarcntr_ir1     6.287     0.9899  3.447E-009  5.483E-008 1.007E-009 1.602E-008
duma9                6.428      1.012  3.513E-009  5.465E-008 1.05E-009 1.634E-008
duma1                6.497      1.023  3.544E-009  5.456E-008 1.07E-009 1.648E-008
elite                6.521      1.027  3.556E-009  5.453E-008 1.078E-009 1.653E-008
duma10                6.38      1.005  3.49E-009  5.47E-008 1.034E-009 1.621E-008
balaipolis           6.382      1.005  3.491E-009  5.47E-008 1.035E-009 1.621E-008
ppu_duma_vcb1            0          0          0          0         0         0
